22

N     12.483777   14.391475   12.142540
C     12.043355   13.674774   13.318725
C     12.551689   12.230169   13.272681
N     12.182943   11.537070   12.058700
C     12.557067   12.298047   10.887967
C     12.049743   13.743796   10.923613
C     12.164858   15.793482   12.184956
C     10.859301   10.968405   12.039973
H     10.940016   13.687072   13.401620
H     12.440232   14.172119   14.208039
H     12.173427   11.673819   14.133574
H     13.644717   12.256495   13.339744
H     12.454001   14.291694   10.067891
H     10.945918   13.760418   10.832486
H     13.650879   12.327444   10.828285
H     12.181660   11.791420    9.995243
H     12.587737   16.243977   13.085700
H     11.075641   15.983333   12.188484
H     12.593738   16.297078   11.315824
H     10.740331   10.306809   12.901463
H     10.740918   10.366596   11.135616
H     10.036260   11.701091   12.064918
